@<TRIPOS>MOLECULE
1
   37  38  1  0  0
SMALL
USER_CHARGES
@<TRIPOS>ATOM
    1 F1         5.8630    -3.1370    -1.3990 F          1 ****  -0.2065
    2 C1         4.6210    -2.8110    -0.9070 C.3        1 ****  0.2534
    3 F2         3.7450    -2.8190    -1.9650 F          1 ****  -0.2065
    4 C2         4.2010    -3.2900     0.4300 C.3        1 ****  0.0222
    5 C3         4.4960    -1.8170     0.1880 C.3        1 ****  0.0523
    6 C4         3.4290    -0.7700     0.1030 C.3        1 ****  0.0621
    7 O1         2.1400    -1.3620     0.2220 O.3        1 ****  -0.3429
    8 C5         1.0420    -0.5490     0.0970 C.ar       1 ****  0.1051
    9 C6         1.0960     0.8430    -0.0310 C.ar       1 ****  -0.0291
   10 C7        -0.0800     1.5860    -0.1490 C.ar       1 ****  -0.0595
   11 C8        -1.3150     0.9450    -0.1360 C.ar       1 ****  -0.0595
   12 C9        -1.3810    -0.4440    -0.0050 C.ar       1 ****  -0.0291
   13 C10       -0.2090    -1.1990     0.1090 C.ar       1 ****  0.1052
   14 O2        -0.1750    -2.5650     0.2450 O.3        1 ****  -0.3421
   15 C11       -1.4040    -3.2770     0.1060 C.3        1 ****  0.0659
   16 C12       -1.0880    -4.7780     0.1560 C.3        1 ****  0.0201
   17 N1        -2.3080    -5.5880     0.0780 N.3        1 ****  -0.3040
   18 C13       -1.9850    -7.0120     0.0470 C.3        1 ****  0.0574
   19 C14       -3.2280    -7.7930     0.0240 C.1        1 ****  -0.0913
   20 C15       -4.2460    -8.4310     0.0050 C.1        1 ****  -0.1188
   21 H1         4.9190    -3.8640     1.0010 H          1 ****  0.0333
   22 H2         3.1740    -3.6170     0.5350 H          1 ****  0.0333
   23 H3         5.4250    -1.4110     0.5680 H          1 ****  0.0390
   24 H4         3.5800    -0.0640     0.9280 H          1 ****  0.0577
   25 H5         3.5270    -0.2410    -0.8530 H          1 ****  0.0577
   26 H6         2.0370     1.3830    -0.0410 H          1 ****  0.0651
   27 H7        -0.0310     2.6680    -0.2500 H          1 ****  0.0623
   28 H8        -2.2300     1.5250    -0.2260 H          1 ****  0.0623
   29 H9        -2.3620    -0.9060     0.0070 H          1 ****  0.0651
   30 H10       -2.0770    -3.0160     0.9320 H          1 ****  0.0585
   31 H11       -1.8780    -3.0390    -0.8550 H          1 ****  0.0585
   32 H12       -0.4130    -5.0180    -0.6750 H          1 ****  0.0452
   33 H13       -0.5390    -4.9990     1.0800 H          1 ****  0.0452
   34 H14       -2.8910    -5.4060     0.8940 H          1 ****  0.1232
   35 H15       -1.3920    -7.2470    -0.8440 H          1 ****  0.0568
   36 H16       -1.3960    -7.2930     0.9290 H          1 ****  0.0568
   37 H17       -5.1520    -8.9910    -0.0190 H          1 ****  0.1256
@<TRIPOS>BOND
    1     1     2 1
    2     2     3 1
    3     2     4 1
    4     4     5 1
    5     4    21 1
    6     4    22 1
    7     5     2 1
    8     5     6 1
    9     5    23 1
   10     6     7 1
   11     6    24 1
   12     6    25 1
   13     7     8 1
   14     8     9 ar
   15     9    10 ar
   16     9    26 1
   17    10    11 ar
   18    10    27 1
   19    11    12 ar
   20    11    28 1
   21    12    13 ar
   22    12    29 1
   23    13     8 ar
   24    13    14 1
   25    14    15 1
   26    15    16 1
   27    15    30 1
   28    15    31 1
   29    16    17 1
   30    16    32 1
   31    16    33 1
   32    17    18 1
   33    17    34 1
   34    18    19 1
   35    18    35 1
   36    18    36 1
   37    19    20 3
   38    20    37 1