@<TRIPOS>MOLECULE
1
   82  83  1  0  0
SMALL
USER_CHARGES
@<TRIPOS>ATOM
    1 C1        17.1540    -0.1210     1.7170 C.3        1 ****  -0.0654
    2 C2        15.8680     0.5980     1.3390 C.3        1 ****  -0.0550
    3 C3        14.6550    -0.3310     1.4450 C.3        1 ****  -0.0407
    4 C4        13.3620     0.3980     1.0530 C.3        1 ****  -0.0019
    5 N1        12.1810    -0.4830     0.9790 N.3        1 ****  -0.3020
    6 C5        11.8550    -1.1590     2.2450 C.3        1 ****  -0.0047
    7 C6        11.4650    -0.2640     3.4180 C.3        1 ****  -0.0525
    8 C7        11.0360     0.2580     0.3880 C.3        1 ****  0.0156
    9 C8         9.8480    -0.6430    -0.0420 C.3        1 ****  0.0411
   10 N2        10.3240    -1.7050    -0.9530 N.3        1 ****  -0.3247
   11 C9         8.7400     0.1940    -0.7120 C.3        1 ****  0.0696
   12 O1         7.5730    -0.6270    -0.8530 O.3        1 ****  -0.3444
   13 C10        6.4790    -0.0640    -1.4480 C.ar       1 ****  0.0761
   14 C11        6.3780     1.2500    -1.9060 C.ar       1 ****  -0.0318
   15 C12        5.1940     1.6950    -2.5010 C.ar       1 ****  -0.0586
   16 C13        4.1060     0.8310    -2.6370 C.ar       1 ****  -0.0481
   17 C14        4.1940    -0.4840    -2.1730 C.ar       1 ****  0.0147
   18 S1         2.8350    -1.6250    -2.3580 S.3        1 ****  -0.0900
   19 C15        1.5200    -0.7870    -1.4940 C.ar       1 ****  0.0136
   20 C16        0.3140    -0.5480    -2.1570 C.ar       1 ****  -0.0479
   21 C17       -0.7450     0.0810    -1.4970 C.ar       1 ****  -0.0565
   22 C18       -0.6230     0.4740    -0.1540 C.ar       1 ****  -0.0292
   23 C19       -1.7990     1.1520     0.5120 C.3        1 ****  -0.0223
   24 C20       -1.7030     2.6790     0.4180 C.3        1 ****  0.0052
   25 C21       -2.9230     3.3910     1.0230 C.3        1 ****  0.2796
   26 F1        -4.0370     2.8520     0.4160 F          1 ****  -0.2210
   27 C22       -2.8510     4.8850     0.7310 C.2        1 ****  0.3093
   28 O2        -1.8690     5.4800     0.3010 O.2        1 ****  -0.2622
   29 O3        -4.0520     5.4790     1.0020 O.3        1 ****  -0.3133
   30 C23       -4.0820     6.8910     0.7610 C.3        1 ****  0.0536
   31 C24       -5.4640     7.4030     1.1170 C.3        1 ****  -0.0410
   32 C25       -2.9420     3.1910     2.5300 C.2        1 ****  0.3093
   33 O4        -2.2790     3.8370     3.3320 O.2        1 ****  -0.2622
   34 O5        -3.7650     2.1570     2.8740 O.3        1 ****  -0.3133
   35 C26       -3.8080     1.8710     4.2770 C.3        1 ****  0.0536
   36 C27       -4.7610     0.7120     4.4930 C.3        1 ****  -0.0410
   37 C28        0.5940     0.2310     0.5040 C.ar       1 ****  0.0448
   38 Cl1        0.8400     0.6880     2.1530 Cl         1 ****  -0.0840
   39 C29        1.6530    -0.3990    -0.1580 C.ar       1 ****  -0.0293
   40 C30        5.3850    -0.9240    -1.5870 C.ar       1 ****  -0.0178
   41 H1        17.3380    -0.9700     1.0500 H          1 ****  0.0230
   42 H2        17.1080    -0.4950     2.7450 H          1 ****  0.0230
   43 H3        18.0060     0.5620     1.6410 H          1 ****  0.0230
   44 H4        15.9580     0.9800     0.3160 H          1 ****  0.0264
   45 H5        15.7320     1.4620     1.9990 H          1 ****  0.0264
   46 H6        14.8030    -1.1990     0.7920 H          1 ****  0.0279
   47 H7        14.5900    -0.7010     2.4750 H          1 ****  0.0279
   48 H8        13.5300     0.8360     0.0610 H          1 ****  0.0430
   49 H9        13.1840     1.2380     1.7360 H          1 ****  0.0430
   50 H10       12.6990    -1.7880     2.5500 H          1 ****  0.0427
   51 H11       11.0490    -1.8820     2.0770 H          1 ****  0.0427
   52 H12       10.5540     0.3050     3.2100 H          1 ****  0.0243
   53 H13       12.2640     0.4350     3.6800 H          1 ****  0.0243
   54 H14       11.2680    -0.8820     4.3010 H          1 ****  0.0243
   55 H15       11.3860     0.7780    -0.5150 H          1 ****  0.0447
   56 H16       10.6850     1.0390     1.0720 H          1 ****  0.0447
   57 H17        9.4170    -1.1320     0.8390 H          1 ****  0.0500
   58 H18        9.6040    -2.4220    -1.0250 H          1 ****  0.1187
   59 H19       11.1460    -2.1320    -0.5200 H          1 ****  0.1187
   60 H20        9.0790     0.5500    -1.6930 H          1 ****  0.0589
   61 H21        8.5000     1.0510    -0.0700 H          1 ****  0.0589
   62 H22        7.2010     1.9510    -1.8220 H          1 ****  0.0650
   63 H23        5.1200     2.7170    -2.8640 H          1 ****  0.0623
   64 H24        3.1980     1.1920    -3.1130 H          1 ****  0.0634
   65 H25        0.1860    -0.8520    -3.1940 H          1 ****  0.0634
   66 H26       -1.6720     0.2550    -2.0400 H          1 ****  0.0626
   67 H27       -2.7270     0.8090     0.0350 H          1 ****  0.0317
   68 H28       -1.8740     0.8190     1.5520 H          1 ****  0.0317
   69 H29       -0.7820     3.0290     0.9030 H          1 ****  0.0314
   70 H30       -1.6190     2.9580    -0.6410 H          1 ****  0.0314
   71 H31       -3.3300     7.3900     1.3830 H          1 ****  0.0570
   72 H32       -3.8760     7.0890    -0.2970 H          1 ****  0.0570
   73 H33       -5.6930     7.1950     2.1670 H          1 ****  0.0254
   74 H34       -6.2280     6.8960     0.5180 H          1 ****  0.0254
   75 H35       -5.5380     8.4800     0.9450 H          1 ****  0.0254
   76 H36       -4.1660     2.7510     4.8230 H          1 ****  0.0570
   77 H37       -2.8070     1.5980     4.6290 H          1 ****  0.0570
   78 H38       -4.4280    -0.1700     3.9350 H          1 ****  0.0254
   79 H39       -5.7620     0.9620     4.1250 H          1 ****  0.0254
   80 H40       -4.8280     0.4540     5.5540 H          1 ****  0.0254
   81 H41        2.5820    -0.5900     0.3740 H          1 ****  0.0650
   82 H42        5.4740    -1.9490    -1.2350 H          1 ****  0.0699
@<TRIPOS>BOND
    1     1     2 1
    2     1    41 1
    3     1    42 1
    4     1    43 1
    5     2     3 1
    6     2    44 1
    7     2    45 1
    8     3     4 1
    9     3    46 1
   10     3    47 1
   11     4     5 1
   12     4    48 1
   13     4    49 1
   14     5     6 1
   15     5     8 1
   16     6     7 1
   17     6    50 1
   18     6    51 1
   19     7    52 1
   20     7    53 1
   21     7    54 1
   22     8     9 1
   23     8    55 1
   24     8    56 1
   25     9    10 1
   26     9    11 1
   27     9    57 1
   28    10    58 1
   29    10    59 1
   30    11    12 1
   31    11    60 1
   32    11    61 1
   33    12    13 1
   34    13    14 ar
   35    14    15 ar
   36    14    62 1
   37    15    16 ar
   38    15    63 1
   39    16    17 ar
   40    16    64 1
   41    17    18 1
   42    17    40 ar
   43    18    19 1
   44    19    20 ar
   45    20    21 ar
   46    20    65 1
   47    21    22 ar
   48    21    66 1
   49    22    23 1
   50    22    37 ar
   51    23    24 1
   52    23    67 1
   53    23    68 1
   54    24    25 1
   55    24    69 1
   56    24    70 1
   57    25    26 1
   58    25    27 1
   59    25    32 1
   60    27    28 2
   61    27    29 1
   62    29    30 1
   63    30    31 1
   64    30    71 1
   65    30    72 1
   66    31    73 1
   67    31    74 1
   68    31    75 1
   69    32    33 2
   70    32    34 1
   71    34    35 1
   72    35    36 1
   73    35    76 1
   74    35    77 1
   75    36    78 1
   76    36    79 1
   77    36    80 1
   78    37    38 1
   79    37    39 ar
   80    39    19 ar
   81    39    81 1
   82    40    13 ar
   83    40    82 1