@<TRIPOS>MOLECULE
1
   42  45  1  0  0
SMALL
USER_CHARGES
@<TRIPOS>ATOM
    1 O1         2.4990    -0.6890    -0.0350 O.2        1 ****  -0.2997
    2 C1         1.2760    -0.5870    -0.1120 C.2        1 ****  0.1324
    3 C2         0.6090     0.0740    -1.2970 C.3        1 ****  0.0066
    4 C3        -0.4830     1.0290    -0.8320 C.3        1 ****  -0.0395
    5 C4        -1.4740     0.3330     0.1190 C.3        1 ****  -0.0153
    6 C5        -0.7290    -0.2490     1.3340 C.3        1 ****  -0.0395
    7 C6         0.3610    -1.2250     0.9080 C.3        1 ****  0.0066
    8 C7        -2.5970     1.2630     0.5410 C.ar       1 ****  -0.0423
    9 C8        -2.3560     2.4310     1.2740 C.ar       1 ****  -0.0586
   10 C9        -3.4130     3.2600     1.6530 C.ar       1 ****  -0.0594
   11 C10       -4.7260     2.9340     1.3080 C.ar       1 ****  -0.0318
   12 C11       -4.9870     1.7750     0.5800 C.ar       1 ****  0.0752
   13 O2        -6.2170     1.3390     0.1740 O.3        1 ****  -0.3458
   14 C12       -7.3560     2.0140     0.7090 C.3        1 ****  0.0566
   15 C13       -8.6240     1.3330     0.2780 C.3        1 ****  -0.0111
   16 C14       -8.8190     0.8780    -1.1060 C.3        1 ****  -0.0417
   17 C15       -8.6320    -0.1700    -0.0080 C.3        1 ****  -0.0243
   18 C16       -9.5970    -1.3210    -0.2780 C.3        1 ****  -0.0467
   19 C17       -9.4110    -0.8700     1.1030 C.3        1 ****  -0.0467
   20 C18       -3.9220     0.9530     0.1960 C.ar       1 ****  -0.0283
   21 H1         1.3620     0.6220    -1.8730 H          1 ****  0.0346
   22 H2         0.1960    -0.7120    -1.9380 H          1 ****  0.0346
   23 H3        -1.0140     1.4270    -1.7060 H          1 ****  0.0277
   24 H4        -0.0150     1.8870    -0.3320 H          1 ****  0.0277
   25 H5        -1.9160    -0.5110    -0.4290 H          1 ****  0.0352
   26 H6        -1.4340    -0.7620     2.0000 H          1 ****  0.0277
   27 H7        -0.2710     0.5580     1.9220 H          1 ****  0.0277
   28 H8        -0.0720    -2.1260     0.4610 H          1 ****  0.0346
   29 H9         0.9510    -1.5270     1.7800 H          1 ****  0.0346
   30 H10       -1.3450     2.7110     1.5590 H          1 ****  0.0625
   31 H11       -3.2120     4.1660     2.2210 H          1 ****  0.0623
   32 H12       -5.5180     3.6090     1.6160 H          1 ****  0.0650
   33 H13       -7.3180     2.0050     1.8050 H          1 ****  0.0575
   34 H14       -7.3800     3.0490     0.3480 H          1 ****  0.0575
   35 H15       -9.4810     1.7780     0.7710 H          1 ****  0.0332
   36 H16       -8.0070     0.9850    -1.8190 H          1 ****  0.0276
   37 H17       -9.7980     1.0180    -1.5490 H          1 ****  0.0276
   38 H18       -9.1570    -2.2660    -0.5770 H          1 ****  0.0272
   39 H19      -10.5500    -1.1200    -0.7520 H          1 ****  0.0272
   40 H20       -8.8400    -1.4980     1.7780 H          1 ****  0.0272
   41 H21      -10.2370    -0.3580     1.5830 H          1 ****  0.0272
   42 H22       -4.1440     0.0530    -0.3750 H          1 ****  0.0669
@<TRIPOS>BOND
    1     1     2 2
    2     2     3 1
    3     3     4 1
    4     3    21 1
    5     3    22 1
    6     4     5 1
    7     4    23 1
    8     4    24 1
    9     5     6 1
   10     5     8 1
   11     5    25 1
   12     6     7 1
   13     6    26 1
   14     6    27 1
   15     7     2 1
   16     7    28 1
   17     7    29 1
   18     8     9 ar
   19     9    10 ar
   20     9    30 1
   21    10    11 ar
   22    10    31 1
   23    11    12 ar
   24    11    32 1
   25    12    13 1
   26    12    20 ar
   27    13    14 1
   28    14    15 1
   29    14    33 1
   30    14    34 1
   31    15    16 1
   32    15    35 1
   33    16    17 1
   34    16    36 1
   35    16    37 1
   36    17    15 1
   37    17    18 1
   38    18    19 1
   39    18    38 1
   40    18    39 1
   41    19    17 1
   42    19    40 1
   43    19    41 1
   44    20     8 ar
   45    20    42 1