@<TRIPOS>MOLECULE
1
   99   104     1     1     1
SMALL
USER_CHARGES
@<TRIPOS>ATOM
    1 C1         2.779    -1.008    -1.206 C.3        1 ****   -0.0599
    2 C2         1.612    -0.401    -0.397 C.3        1 ****   -0.0349
    3 C3         2.171    -0.016     0.983 C.3        1 ****   -0.0599
    4 C4         1.103     0.856    -1.133 C.3        1 ****   -0.0476
    5 C5        -0.243     1.362    -0.608 C.3        1 ****   -0.0468
    6 C6        -1.350     0.277    -0.602 C.3        1 ****   -0.0260
    7 C7        -1.664    -0.143    -2.064 C.3        1 ****   -0.0591
    8 C8        -2.674     0.841    -0.045 C.3        1 ****   -0.0465
    9 C9        -2.588     1.206     1.427 C.3        1 ****   -0.0431
   10 C10       -2.192     0.026     2.364 C.3        1 ****   -0.0057
   11 C11       -3.420    -0.932     2.416 C.3        1 ****   -0.0554
   12 C12       -1.037    -0.811     1.773 C.2        1 ****   -0.0641
   13 C13       -0.353    -1.614     2.614 C.2        1 ****   -0.0842
   14 C14       -0.657    -1.761     4.068 C.3        1 ****   -0.0309
   15 C15       -1.118    -0.476     4.775 C.3        1 ****   -0.0261
   16 C16       -1.767    -0.711     6.212 C.3        1 ****   -0.0255
   17 C17       -3.067    -1.547     6.140 C.3        1 ****   -0.0591
   18 C18       -0.739    -1.510     7.077 C.3        1 ****   -0.0459
   19 C19       -1.005    -1.488     8.583 C.3        1 ****   -0.0387
   20 C20       -1.124    -0.050     9.099 C.3        1 ****   -0.0053
   21 N1        -0.993    -0.014    10.596 N.am       1 ****   -0.3318
   22 C21        0.259     0.547    11.237 C.3        1 ****   -0.0030
   23 C22        1.504     0.472    10.322 C.3        1 ****   -0.0491
   24 C23        0.034     2.024    11.600 C.3        1 ****   -0.0491
   25 C24        0.636    -0.273    12.495 C.3        1 ****   -0.0176
   26 C25       -0.493    -0.408    13.492 C.3        1 ****    0.0090
   27 O1        -1.524    -1.158    12.898 O.3        1 ****   -0.4981
   28 S1        -2.259    -0.529    11.601 S.O2       1 ****    1.6610
   29 O2        -2.950    -1.627    10.965 O.2        1 ****   -0.5534
   30 O3        -2.971     0.650    12.043 O.2        1 ****   -0.5534
   31 C26       -2.290     0.751     8.413 C.3        1 ****   -0.0187
   32 C27       -2.240     2.228     8.875 C.3        1 ****   -0.0583
   33 C28       -3.706     0.232     8.731 C.3        1 ****   -0.0583
   34 C29       -1.989     0.709     6.846 C.3        1 ****   -0.0292
   35 C30       -2.897     1.622     5.990 C.3        1 ****   -0.0488
   36 C31       -3.074     1.201     4.530 C.3        1 ****   -0.0465
   37 C32       -1.822     0.596     3.844 C.3        1 ****   -0.0198
   38 C33       -0.796     1.778     3.718 C.3        1 ****   -0.0586
   39 C34       -0.891    -0.954     0.239 C.3        1 ****   -0.0139
   40 C35        0.488    -1.461    -0.288 C.3        1 ****   -0.0410
   41 H1         3.179    -1.901    -0.713 H          1 ****    0.0235
   42 H2         3.600    -0.291    -1.319 H          1 ****    0.0235
   43 H3         2.456    -1.301    -2.212 H          1 ****    0.0235
   44 H4         3.027     0.663     0.884 H          1 ****    0.0235
   45 H5         2.518    -0.899     1.531 H          1 ****    0.0235
   46 H6         1.434     0.496     1.602 H          1 ****    0.0235
   47 H7         1.842     1.664    -1.052 H          1 ****    0.0272
   48 H8         1.014     0.651    -2.206 H          1 ****    0.0272
   49 H9        -0.084     1.761     0.398 H          1 ****    0.0272
   50 H10       -0.561     2.213    -1.224 H          1 ****    0.0272
   51 H11       -0.799    -0.545    -2.596 H          1 ****    0.0236
   52 H12       -2.027     0.714    -2.644 H          1 ****    0.0236
   53 H13       -2.444    -0.912    -2.091 H          1 ****    0.0236
   54 H14       -2.963     1.737    -0.610 H          1 ****    0.0272
   55 H15       -3.487     0.119    -0.195 H          1 ****    0.0272
   56 H16       -1.890     2.040     1.503 H          1 ****    0.0275
   57 H17       -3.559     1.615     1.733 H          1 ****    0.0275
   58 H18       -3.551    -1.482     1.477 H          1 ****    0.0239
   59 H19       -4.356    -0.389     2.586 H          1 ****    0.0239
   60 H20       -3.328    -1.681     3.205 H          1 ****    0.0239
   61 H21        0.385    -2.319     2.249 H          1 ****    0.0575
   62 H22       -1.376    -2.579     4.172 H          1 ****    0.0312
   63 H23        0.260    -2.117     4.557 H          1 ****    0.0312
   64 H24       -0.146    -0.019     5.026 H          1 ****    0.0317
   65 H25       -3.016    -2.334     5.386 H          1 ****    0.0236
   66 H26       -3.956    -0.951     5.930 H          1 ****    0.0236
   67 H27       -3.270    -2.073     7.076 H          1 ****    0.0236
   68 H28       -0.698    -2.555     6.747 H          1 ****    0.0272
   69 H29        0.268    -1.102     6.919 H          1 ****    0.0272
   70 H30       -1.895    -2.080     8.809 H          1 ****    0.0282
   71 H31       -0.175    -1.998     9.087 H          1 ****    0.0282
   72 H32       -0.236     0.456     8.714 H          1 ****    0.0448
   73 H33        1.465     1.195     9.501 H          1 ****    0.0248
   74 H34        1.633    -0.529     9.897 H          1 ****    0.0248
   75 H35        2.417     0.709    10.882 H          1 ****    0.0248
   76 H36       -0.860     2.177    12.210 H          1 ****    0.0248
   77 H37       -0.081     2.639    10.702 H          1 ****    0.0248
   78 H38        0.887     2.426    12.159 H          1 ****    0.0248
   79 H39        1.500     0.180    12.998 H          1 ****    0.0306
   80 H40        0.938    -1.282    12.180 H          1 ****    0.0306
   81 H41       -0.143    -0.961    14.369 H          1 ****    0.0526
   82 H42       -0.869     0.556    13.848 H          1 ****    0.0526
   83 H43       -1.280     2.691     8.623 H          1 ****    0.0236
   84 H44       -2.384     2.317     9.956 H          1 ****    0.0236
   85 H45       -3.029     2.827     8.407 H          1 ****    0.0236
   86 H46       -4.043     0.556     9.718 H          1 ****    0.0236
   87 H47       -3.780    -0.853     8.703 H          1 ****    0.0236
   88 H48       -4.459     0.617     8.038 H          1 ****    0.0236
   89 H49       -1.000     1.191     6.767 H          1 ****    0.0314
   90 H50       -3.897     1.725     6.419 H          1 ****    0.0269
   91 H51       -2.476     2.637     6.009 H          1 ****    0.0269
   92 H52       -3.428     2.078     3.973 H          1 ****    0.0272
   93 H53       -3.908     0.499     4.489 H          1 ****    0.0272
   94 H54       -0.394     2.078     4.692 H          1 ****    0.0236
   95 H55       -1.251     2.685     3.307 H          1 ****    0.0236
   96 H56        0.056     1.504     3.090 H          1 ****    0.0236
   97 H57       -1.600    -1.763     0.001 H          1 ****    0.0354
   98 H58        0.845    -2.326     0.280 H          1 ****    0.0278
   99 H59        0.317    -1.878    -1.290 H          1 ****    0.0332
@<TRIPOS>BOND
     1    1    2 1  
     2    1   41 1  
     3    1   42 1  
     4    1   43 1  
     5    2    3 1  
     6    2    4 1  
     7    3   44 1  
     8    3   45 1  
     9    3   46 1  
    10    4    5 1  
    11    4   47 1  
    12    4   48 1  
    13    5    6 1  
    14    5   49 1  
    15    5   50 1  
    16    6    7 1  
    17    6    8 1  
    18    7   51 1  
    19    7   52 1  
    20    7   53 1  
    21    8    9 1  
    22    8   54 1  
    23    8   55 1  
    24    9   10 1  
    25    9   56 1  
    26    9   57 1  
    27   10   11 1  
    28   10   12 1  
    29   11   58 1  
    30   11   59 1  
    31   11   60 1  
    32   12   13 2  
    33   12   39 1  
    34   13   14 1  
    35   13   61 1  
    36   14   15 1  
    37   14   62 1  
    38   14   63 1  
    39   15   16 1  
    40   15   64 1  
    41   16   17 1  
    42   16   18 1  
    43   17   65 1  
    44   17   66 1  
    45   17   67 1  
    46   18   19 1  
    47   18   68 1  
    48   18   69 1  
    49   19   20 1  
    50   19   70 1  
    51   19   71 1  
    52   20   21 1  
    53   20   31 1  
    54   20   72 1  
    55   21   22 1  
    56   22   23 1  
    57   22   24 1  
    58   22   25 1  
    59   23   73 1  
    60   23   74 1  
    61   23   75 1  
    62   24   76 1  
    63   24   77 1  
    64   24   78 1  
    65   25   26 1  
    66   25   79 1  
    67   25   80 1  
    68   26   27 1  
    69   26   81 1  
    70   26   82 1  
    71   27   28 1  
    72   28   21 am 
    73   28   29 2  
    74   28   30 2  
    75   31   32 1  
    76   31   33 1  
    77   31   34 1  
    78   32   83 1  
    79   32   84 1  
    80   32   85 1  
    81   33   86 1  
    82   33   87 1  
    83   33   88 1  
    84   34   16 1  
    85   34   35 1  
    86   34   89 1  
    87   35   36 1  
    88   35   90 1  
    89   35   91 1  
    90   36   37 1  
    91   36   92 1  
    92   36   93 1  
    93   37   10 1  
    94   37   15 1  
    95   37   38 1  
    96   38   94 1  
    97   38   95 1  
    98   38   96 1  
    99   39    6 1  
   100   39   40 1  
   101   39   97 1  
   102   40    2 1  
   103   40   98 1  
   104   40   99 1  