@<TRIPOS>MOLECULE
1
   70  75  1  0  0
SMALL
USER_CHARGES
@<TRIPOS>ATOM
    1 C1         7.8850    -8.4970     3.8610 C.3        1 ****  -0.0398
    2 C2         8.0870    -7.1710     3.1910 C.ar       1 ****  -0.0508
    3 C3         9.1870    -6.3740     3.5100 C.ar       1 ****  -0.0578
    4 C4         9.3850    -5.1510     2.8640 C.ar       1 ****  -0.0437
    5 C5         8.4830    -4.6850     1.8980 C.ar       1 ****  0.0182
    6 N1         8.7640    -3.4760     1.2400 N.pl3      1 ****  -0.2824
    7 C6         7.6490    -2.8510     0.5060 C.3        1 ****  0.0434
    8 C7         8.1490    -1.6360    -0.3200 C.3        1 ****  0.0005
    9 C8         9.2370    -1.9770    -1.3520 C.3        1 ****  -0.0445
   10 C9         9.7080    -0.7150    -2.0730 C.3        1 ****  -0.0292
   11 C10       10.0870     0.3710    -1.0780 C.3        1 ****  0.0465
   12 O1         8.9990     0.6480    -0.1960 O.3        1 ****  -0.3811
   13 C11        8.6360    -0.4940     0.5830 C.3        1 ****  0.0509
   14 C12        6.9470    -3.9180    -0.3720 C.3        1 ****  0.0842
   15 C13        6.4400    -5.1060     0.4520 C.3        1 ****  0.0022
   16 C14        7.4150    -5.5160     1.5260 C.ar       1 ****  -0.0272
   17 C15        7.2150    -6.7420     2.1850 C.ar       1 ****  -0.0545
   18 O2         5.9840    -3.4270    -1.3130 O.3        1 ****  -0.3409
   19 C16        4.8250    -2.8010    -0.9720 C.ar       1 ****  0.0757
   20 C17        4.3470    -2.5400     0.3060 C.ar       1 ****  -0.0302
   21 C18        3.1270    -1.8780     0.4790 C.ar       1 ****  -0.0405
   22 C19        2.3610    -1.4700    -0.6250 C.ar       1 ****  0.0289
   23 N2         1.1210    -0.7880    -0.3990 N.pl3      1 ****  -0.2226
   24 C20        1.1820     0.5970    -0.3090 C.2        1 ****  -0.0098
   25 C21        0.2060     1.4770    -0.0750 C.2        1 ****  0.0381
   26 C22        0.4470     2.8640    -0.0160 C.1        1 ****  0.0806
   27 N3         0.6960     3.9960     0.0230 N.1        1 ****  -0.1945
   28 S1        -1.3880     0.9280     0.1660 S.O2       1 ****  1.3198
   29 O3        -1.7940     1.2090     1.5310 O.2        1 ****  -0.5755
   30 O4        -2.2180     1.3520    -0.9470 O.2        1 ****  -0.5755
   31 C23       -1.3210    -0.8350     0.0540 C.ar       1 ****  -0.0319
   32 C24       -2.5310    -1.5280     0.2380 C.ar       1 ****  -0.0681
   33 C25       -2.5480    -2.9150     0.1600 C.ar       1 ****  -0.0275
   34 C26       -1.3640    -3.5880    -0.1000 C.ar       1 ****  0.1242
   35 F1        -1.3710    -4.9250    -0.1790 F          1 ****  -0.2070
   36 C27       -0.1650    -2.8990    -0.2820 C.ar       1 ****  -0.0088
   37 C28       -0.1110    -1.4930    -0.2080 C.ar       1 ****  0.0186
   38 C29        2.8330    -1.7320    -1.9230 C.ar       1 ****  -0.0297
   39 C30        2.0550    -1.3250    -3.1440 C.3        1 ****  -0.0381
   40 C31        4.0630    -2.3930    -2.0740 C.ar       1 ****  -0.0273
   41 H1         8.2780    -8.4830     4.8830 H          1 ****  0.0279
   42 H2         8.3940    -9.2840     3.2960 H          1 ****  0.0279
   43 H3         6.8190    -8.7420     3.9270 H          1 ****  0.0279
   44 H4         9.9050    -6.7000     4.2600 H          1 ****  0.0626
   45 H5        10.2600    -4.5600     3.1230 H          1 ****  0.0639
   46 H6         9.2660    -2.8430     1.8580 H          1 ****  0.1285
   47 H7         6.9470    -2.4620     1.2510 H          1 ****  0.0499
   48 H8         7.2980    -1.2330    -0.8850 H          1 ****  0.0343
   49 H9         8.8610    -2.6890    -2.0940 H          1 ****  0.0271
   50 H10       10.0970    -2.4460    -0.8590 H          1 ****  0.0271
   51 H11       10.5570    -0.9460    -2.7260 H          1 ****  0.0290
   52 H12        8.8910    -0.3510    -2.7080 H          1 ****  0.0290
   53 H13       10.3290     1.2970    -1.6100 H          1 ****  0.0566
   54 H14       10.9690     0.0860    -0.4920 H          1 ****  0.0566
   55 H15        9.4930    -0.7850     1.2000 H          1 ****  0.0570
   56 H16        7.8340    -0.1810     1.2600 H          1 ****  0.0570
   57 H17        7.7320    -4.3420    -1.0150 H          1 ****  0.0629
   58 H18        6.2610    -5.9480    -0.2290 H          1 ****  0.0344
   59 H19        5.4780    -4.8980     0.9270 H          1 ****  0.0344
   60 H20        6.3730    -7.3710     1.9020 H          1 ****  0.0628
   61 H21        4.8770    -2.8370     1.2020 H          1 ****  0.0650
   62 H22        2.7690    -1.6830     1.4880 H          1 ****  0.0640
   63 H23        2.1960     0.9750    -0.4610 H          1 ****  0.0753
   64 H24       -3.4530    -0.9850     0.4400 H          1 ****  0.0610
   65 H25       -3.4700    -3.4730     0.2970 H          1 ****  0.0652
   66 H26        0.7210    -3.4940    -0.4860 H          1 ****  0.0670
   67 H27        1.9590    -0.2350    -3.1890 H          1 ****  0.0280
   68 H28        1.0600    -1.7790    -3.1330 H          1 ****  0.0280
   69 H29        2.5520    -1.6510    -4.0630 H          1 ****  0.0280
   70 H30        4.4450    -2.6010    -3.0740 H          1 ****  0.0688
@<TRIPOS>BOND
    1     1     2 1
    2     1    41 1
    3     1    42 1
    4     1    43 1
    5     2     3 ar
    6     3     4 ar
    7     3    44 1
    8     4     5 ar
    9     4    45 1
   10     5     6 1
   11     6     7 1
   12     6    46 1
   13     7     8 1
   14     7    14 1
   15     7    47 1
   16     8     9 1
   17     8    48 1
   18     9    10 1
   19     9    49 1
   20     9    50 1
   21    10    11 1
   22    10    51 1
   23    10    52 1
   24    11    12 1
   25    11    53 1
   26    11    54 1
   27    12    13 1
   28    13     8 1
   29    13    55 1
   30    13    56 1
   31    14    15 1
   32    14    18 1
   33    14    57 1
   34    15    16 1
   35    15    58 1
   36    15    59 1
   37    16     5 ar
   38    16    17 ar
   39    17     2 ar
   40    17    60 1
   41    18    19 1
   42    19    20 ar
   43    20    21 ar
   44    20    61 1
   45    21    22 ar
   46    21    62 1
   47    22    23 1
   48    22    38 ar
   49    23    24 1
   50    24    25 2
   51    24    63 1
   52    25    26 1
   53    25    28 1
   54    26    27 3
   55    28    29 2
   56    28    30 2
   57    28    31 1
   58    31    32 ar
   59    32    33 ar
   60    32    64 1
   61    33    34 ar
   62    33    65 1
   63    34    35 1
   64    34    36 ar
   65    36    37 ar
   66    36    66 1
   67    37    23 1
   68    37    31 ar
   69    38    39 1
   70    38    40 ar
   71    39    67 1
   72    39    68 1
   73    39    69 1
   74    40    19 ar
   75    40    70 1